resultados/CN12/cn15_100_volts.csv
Bus, BasekV, Node1, Magnitude1, Angle1, pu1, Node2, Magnitude2, Angle2, pu2, Node3, Magnitude3, Angle3, pu3
"SCN_CN15_9199_CEI77A_ATV", 13.8, 1,    7936.04,   -0.3,   0.99606, 2,    7936.04, -120.3,   0.99606, 3,    7936.04,  119.7,   0.99606
"SCN_CN15_9153_CEI109", 13.8, 1,    6311.18,   -4.0,   0.79212, 2,    6311.17, -124.0,   0.79212, 3,    6311.17,  116.0,   0.79212
"SCN_CN15_9154_CEI109", 13.8, 1,    6311.21,   -4.0,   0.79213, 2,    6311.19, -124.0,   0.79212, 3,     6311.2,  116.0,   0.79212
"SCN_CN15_9098_CEI131_ATV", 13.8, 1,    6382.13,   -3.7,   0.80103, 2,    6382.12, -123.7,   0.80103, 3,    6382.12,  116.3,   0.80103
"SCN_CN15_9097_CEI131_ATV", 13.8, 1,    6382.14,   -3.7,   0.80103, 2,    6382.12, -123.7,   0.80103, 3,    6382.13,  116.3,   0.80103
"SCN_CN15_9079_CEI201_ATV", 13.8, 1,    6461.47,   -3.4,   0.81098, 2,    6461.46, -123.4,   0.81098, 3,    6461.46,  116.6,   0.81098
"SCN_CN15_9080_CEI201_ATV", 13.8, 1,    6461.46,   -3.4,   0.81098, 2,    6461.45, -123.4,   0.81098, 3,    6461.45,  116.6,   0.81098
"SCN_CN15_9356_CEI109", 13.8, 1,    6287.82,   -4.1,   0.78919, 2,    6287.81, -124.1,   0.78919, 3,    6287.81,  115.9,   0.78919
"SCN_CN15_9349_CEI109", 13.8, 1,    6288.23,   -4.1,   0.78924, 2,    6288.22, -124.1,   0.78924, 3,    6288.22,  115.9,   0.78924
"SCN_CN15_9039_CEI201_ATV", 13.8, 1,    6288.43,   -4.1,   0.78927, 2,    6288.41, -124.1,   0.78926, 3,    6288.41,  115.9,   0.78926
"SCN_CN15_9021_CEI201_ATV", 13.8, 1,    6284.75,   -4.1,   0.78881, 2,    6284.74, -124.1,    0.7888, 3,    6284.74,  115.9,    0.7888
"SCN_CN15_9022_CEI201_ATV", 13.8, 1,    6284.92,   -4.1,   0.78883, 2,     6284.9, -124.1,   0.78882, 3,    6284.91,  115.9,   0.78882
"SCN_CN15_9274_CEI109", 13.8, 1,    6345.55,   -3.9,   0.79644, 2,    6345.54, -123.9,   0.79643, 3,    6345.54,  116.1,   0.79643
"SCN_CN15_9275_CEI109", 13.8, 1,    6344.42,   -3.9,   0.79629, 2,     6344.4, -123.9,   0.79629, 3,    6344.41,  116.1,   0.79629
"SCN_CN15_9269_CEI109", 13.8, 1,    6346.67,   -3.9,   0.79658, 2,    6346.66, -123.9,   0.79658, 3,    6346.66,  116.1,   0.79658
"SCN_CN15_9053_CEI201_ATV", 13.8, 1,    6290.22,   -4.1,   0.78949, 2,    6290.21, -124.1,   0.78949, 3,    6290.21,  115.9,   0.78949
"SCN_CN15_9485_CEI109", 13.8, 1,    6290.24,   -4.1,   0.78949, 2,    6290.23, -124.1,   0.78949, 3,    6290.23,  115.9,   0.78949
"SCN_CN15_421165_CEI", 13.8, 1,    6471.98,   -3.3,    0.8123, 2,    6471.96, -123.3,    0.8123, 3,    6471.97,  116.7,    0.8123
"SCN_CN15_421166_CEI", 13.8, 1,    6472.56,   -3.3,   0.81238, 2,    6472.55, -123.3,   0.81238, 3,    6472.55,  116.7,   0.81238
"SCN_CN15_9143_CEI69B", 13.8, 1,    6473.08,   -3.3,   0.81244, 2,    6473.06, -123.3,   0.81244, 3,    6473.07,  116.7,   0.81244
"SCN_CN15_9141_CEI201_ATV", 13.8, 1,    6471.98,   -3.3,    0.8123, 2,    6471.96, -123.3,    0.8123, 3,    6471.97,  116.7,    0.8123
"SCN_CN15_9129_CEI201_ATV", 13.8, 1,    6477.24,   -3.3,   0.81296, 2,    6477.23, -123.3,   0.81296, 3,    6477.23,  116.7,   0.81296
"SCN_CN15_9008_CEI220_ATV", 13.8, 1,    6477.24,   -3.3,   0.81296, 2,    6477.23, -123.3,   0.81296, 3,    6477.23,  116.7,   0.81296
"SCN_CN15_421168_CEI", 13.8, 1,    6376.04,   -3.8,   0.80026, 2,    6376.02, -123.8,   0.80026, 3,    6376.03,  116.2,   0.80026
"SCN_CN15_9015_CEI109", 13.8, 1,    6376.04,   -3.8,   0.80026, 2,    6376.02, -123.8,   0.80026, 3,    6376.03,  116.2,   0.80026
"SCN_CN15_421185_CEI", 13.8, 1,    6404.79,   -3.7,   0.80387, 2,    6404.78, -123.7,   0.80387, 3,    6404.78,  116.3,   0.80387
"SCN_CN15_9162_CEI220_ATV_S", 13.8, 1,    6403.31,   -3.7,   0.80368, 2,    6403.29, -123.7,   0.80368, 3,     6403.3,  116.3,   0.80368
"SCN_CN15_421186_CEI", 13.8, 1,    6405.91,   -3.7,   0.80401, 2,    6405.89, -123.7,   0.80401, 3,     6405.9,  116.3,   0.80401
"SCN_CN15_421187_CEI", 13.8, 1,    6407.21,   -3.6,   0.80417, 2,     6407.2, -123.6,   0.80417, 3,     6407.2,  116.4,   0.80417
"SCN_CN15_421169_CEI", 13.8, 1,    6409.07,   -3.6,   0.80441, 2,    6409.05, -123.6,   0.80441, 3,    6409.06,  116.4,   0.80441
"SCN_CN15_9012_CEI120", 13.8, 1,    6407.97,   -3.6,   0.80427, 2,    6407.96, -123.6,   0.80427, 3,    6407.96,  116.4,   0.80427
"SCN_CN15_421170_CEI", 13.8, 1,    6417.74,   -3.6,    0.8055, 2,    6417.73, -123.6,    0.8055, 3,    6417.73,  116.4,    0.8055
"SCN_CN15_421171_CEI", 13.8, 1,    6417.74,   -3.6,    0.8055, 2,    6417.73, -123.6,    0.8055, 3,    6417.73,  116.4,    0.8055
"SCN_CN15_421172_CEI", 13.8, 1,    6417.74,   -3.6,    0.8055, 2,    6417.73, -123.6,    0.8055, 3,    6417.73,  116.4,    0.8055
"SCN_CN15_421173_CEI", 13.8, 1,    6417.74,   -3.6,    0.8055, 2,    6417.73, -123.6,    0.8055, 3,    6417.73,  116.4,    0.8055
"SCN_CN15_421174_CEI", 13.8, 1,    6417.74,   -3.6,    0.8055, 2,    6417.73, -123.6,    0.8055, 3,    6417.73,  116.4,    0.8055
"SCN_CN15_421175_CEI", 13.8, 1,    6425.31,   -3.6,   0.80645, 2,     6425.3, -123.6,   0.80644, 3,     6425.3,  116.4,   0.80645
"SCN_CN15_421176_CEI", 13.8, 1,    6425.31,   -3.6,   0.80645, 2,     6425.3, -123.6,   0.80644, 3,     6425.3,  116.4,   0.80645
"SCN_CN15_421177_CEI", 13.8, 1,    6425.31,   -3.6,   0.80645, 2,     6425.3, -123.6,   0.80644, 3,     6425.3,  116.4,   0.80645
"SCN_CN15_421178_CEI", 13.8, 1,    6425.31,   -3.6,   0.80645, 2,     6425.3, -123.6,   0.80644, 3,     6425.3,  116.4,   0.80645
"SCN_CN15_421179_CEI", 13.8, 1,    6441.34,   -3.5,   0.80846, 2,    6441.32, -123.5,   0.80846, 3,    6441.33,  116.5,   0.80846
"SCN_CN15_9047_CEI130_ATV", 13.8, 1,    6463.69,   -3.4,   0.81126, 2,    6463.68, -123.4,   0.81126, 3,    6463.68,  116.6,   0.81126
"SCN_CN15_421180_CEI", 13.8, 1,    6463.69,   -3.4,   0.81126, 2,    6463.68, -123.4,   0.81126, 3,    6463.68,  116.6,   0.81126
"SCN_CN15_9037_CEI130_ATV", 13.8, 1,    6502.14,   -3.3,   0.81609, 2,    6502.13, -123.3,   0.81609, 3,    6502.13,  116.7,   0.81609
"SCN_CN15_9047_CEI130_ATV_S", 13.8, 1,    6463.69,   -3.4,   0.81126, 2,    6463.68, -123.4,   0.81126, 3,    6463.68,  116.6,   0.81126
"SCN_CN15_421181_CEI", 13.8, 1,    6510.31,   -3.3,   0.81712, 2,     6510.3, -123.3,   0.81711, 3,     6510.3,  116.7,   0.81711
"SCN_CN15_9040_CEI130_ATV", 13.8, 1,    6510.31,   -3.3,   0.81712, 2,     6510.3, -123.3,   0.81711, 3,     6510.3,  116.7,   0.81711
"SCN_CN15_421182_CEI", 13.8, 1,    6510.31,   -3.3,   0.81712, 2,     6510.3, -123.3,   0.81711, 3,     6510.3,  116.7,   0.81711
"SCN_CN15_421183_CEI", 13.8, 1,    6510.31,   -3.3,   0.81712, 2,     6510.3, -123.3,   0.81711, 3,     6510.3,  116.7,   0.81711
"SCN_CN15_421184_CEI", 13.8, 1,    6510.31,   -3.3,   0.81712, 2,     6510.3, -123.3,   0.81711, 3,     6510.3,  116.7,   0.81711
"SCN_CN15_421195_CEI", 13.8, 1,    6547.59,   -3.2,   0.82179, 2,    6547.58, -123.2,   0.82179, 3,    6547.58,  116.8,   0.82179
"SCN_CN15_9022_CEI250_ATV", 13.8, 1,       6546,   -3.2,   0.82159, 2,    6545.98, -123.2,   0.82159, 3,    6545.99,  116.8,   0.82159
"SCN_CN15_421196_CEI", 13.8, 1,    6549.85,   -3.1,   0.82208, 2,    6549.84, -123.1,   0.82208, 3,    6549.84,  116.9,   0.82208
"SCN_CN15_9025_CEI130_ATV", 13.8, 1,     6551.7,   -3.1,   0.82231, 2,    6551.69, -123.1,   0.82231, 3,    6551.69,  116.9,   0.82231
"SCN_CN15_421197_CEI", 13.8, 1,    6463.43,   -3.4,   0.81123, 2,    6463.41, -123.4,   0.81123, 3,    6463.42,  116.6,   0.81123
"SCN_CN15_9004_CEI160_ATV", 13.8, 1,    6463.43,   -3.4,   0.81123, 2,    6463.41, -123.4,   0.81123, 3,    6463.42,  116.6,   0.81123
"SCN_CN15_9005_CEI160_ATV", 13.8, 1,    6463.43,   -3.4,   0.81123, 2,    6463.41, -123.4,   0.81123, 3,    6463.42,  116.6,   0.81123
"SCN_CN15_9017_CEI130A_ATV", 13.8, 1,    6708.56,   -2.8,     0.842, 2,    6708.54, -122.8,     0.842, 3,    6708.55,  117.2,     0.842
"SCN_CN15_421206_CEI", 13.8, 1,    6708.56,   -2.8,     0.842, 2,    6708.54, -122.8,     0.842, 3,    6708.55,  117.2,     0.842
"SCN_CN15_9034_CEI130A_ATV", 13.8, 1,    6707.53,   -2.8,   0.84187, 2,    6707.52, -122.8,   0.84187, 3,    6707.52,  117.2,   0.84187
"SCN_CN15_421207_CEI", 13.8, 1,    6707.53,   -2.8,   0.84187, 2,    6707.52, -122.8,   0.84187, 3,    6707.52,  117.2,   0.84187
"SCN_CN15_421208_CEI", 13.8, 1,    6707.53,   -2.8,   0.84187, 2,    6707.52, -122.8,   0.84187, 3,    6707.52,  117.2,   0.84187
"SCN_CN15_421209_CEI", 13.8, 1,    6707.53,   -2.8,   0.84187, 2,    6707.52, -122.8,   0.84187, 3,    6707.52,  117.2,   0.84187
"SCN_CN15_421210_CEI", 13.8, 1,    6707.53,   -2.8,   0.84187, 2,    6707.52, -122.8,   0.84187, 3,    6707.52,  117.2,   0.84187
"SCN_CN15_421211_CEI", 13.8, 1,    6707.53,   -2.8,   0.84187, 2,    6707.52, -122.8,   0.84187, 3,    6707.52,  117.2,   0.84187
"SCN_CN15_421212_CEI", 13.8, 1,    6707.53,   -2.8,   0.84187, 2,    6707.52, -122.8,   0.84187, 3,    6707.52,  117.2,   0.84187
"SCN_CN15_9040_CEI130A_ATV", 13.8, 1,    6707.45,   -2.8,   0.84186, 2,    6707.44, -122.8,   0.84186, 3,    6707.44,  117.2,   0.84186
"SCN_CN15_421213_CEI", 13.8, 1,    6707.45,   -2.8,   0.84186, 2,    6707.44, -122.8,   0.84186, 3,    6707.44,  117.2,   0.84186
"SCN_CN15_421218_CEI", 13.8, 1,    6712.96,   -2.8,   0.84255, 2,    6712.95, -122.8,   0.84255, 3,    6712.95,  117.2,   0.84255
"SCN_CN15_9353_CEI065", 13.8, 1,    6712.96,   -2.8,   0.84255, 2,    6712.95, -122.8,   0.84255, 3,    6712.95,  117.2,   0.84255
"SCN_CN15_421219_CEI", 13.8, 1,    6712.96,   -2.8,   0.84255, 2,    6712.95, -122.8,   0.84255, 3,    6712.95,  117.2,   0.84255
"CN_ALCN15", 13.8, 1,    6712.96,   -2.8,   0.84255, 2,    6712.95, -122.8,   0.84255, 3,    6712.95,  117.2,   0.84255
"SCN_CN15_421227_CEI", 13.8, 1,    6372.27,   -3.5,   0.79979, 2,    6372.26, -123.5,   0.79979, 3,    6372.26,  116.5,   0.79979
"SCN_CN15_9006_CEIRJ013_ATV", 13.8, 1,    6372.27,   -3.5,   0.79979, 2,    6372.26, -123.5,   0.79979, 3,    6372.26,  116.5,   0.79979
"SCN_CN15_9067_CEIRJ006_ATV", 13.8, 1,    6374.93,   -3.5,   0.80012, 2,    6374.92, -123.5,   0.80012, 3,    6374.92,  116.5,   0.80012
"SCN_CN15_9064_CEIRJ006_ATV", 13.8, 1,    6374.93,   -3.5,   0.80012, 2,    6374.92, -123.5,   0.80012, 3,    6374.92,  116.5,   0.80012
"SCN_CN15_421241_CEI", 13.8, 1,    6374.93,   -3.5,   0.80012, 2,    6374.92, -123.5,   0.80012, 3,    6374.92,  116.5,   0.80012
"SCN_CN15_9068_CEIRJ006_ATV", 13.8, 1,    6374.93,   -3.5,   0.80012, 2,    6374.92, -123.5,   0.80012, 3,    6374.92,  116.5,   0.80012
"SCN_CN15_9050_CEI160_ATV", 13.8, 1,    7272.79,   -1.7,   0.91281, 2,    7272.78, -121.7,   0.91281, 3,    7272.79,  118.3,   0.91281
"SCN_CN15_9014_CEI077_ATV", 13.8, 1,     7273.4,   -1.7,   0.91289, 2,    7273.39, -121.7,   0.91289, 3,     7273.4,  118.3,   0.91289
"SCN_CN15_9052_CEI160_ATV", 13.8, 1,    7272.79,   -1.7,   0.91281, 2,    7272.78, -121.7,   0.91281, 3,    7272.79,  118.3,   0.91281
"SCN_CN15_421244_CEI", 13.8, 1,    7272.21,   -1.7,   0.91274, 2,    7272.21, -121.7,   0.91274, 3,    7272.21,  118.3,   0.91274
"SCN_CN15_421245_CEI", 13.8, 1,    7271.61,   -1.7,   0.91267, 2,    7271.61, -121.7,   0.91267, 3,    7271.61,  118.3,   0.91267
"SCN_CN15_9005_CEIRJ012_ATV_S", 13.8, 1,    7271.04,   -1.7,   0.91259, 2,    7271.03, -121.7,   0.91259, 3,    7271.03,  118.3,   0.91259
"SCN_CN15_9024_CEI167_ATV", 13.8, 1,    7301.84,   -1.6,   0.91646, 2,    7301.83, -121.6,   0.91646, 3,    7301.83,  118.4,   0.91646
"SCN_CN15_9025_CEI167_ATV", 13.8, 1,    7301.84,   -1.6,   0.91646, 2,    7301.83, -121.6,   0.91646, 3,    7301.83,  118.4,   0.91646
"SCN_CN15_9002_CEIRJ013_ATV", 13.8, 1,    7301.84,   -1.6,   0.91646, 2,    7301.83, -121.6,   0.91646, 3,    7301.83,  118.4,   0.91646
"SCN_CN15_9037_CEI77A_ATV", 13.8, 1,    7314.26,   -1.6,   0.91802, 2,    7314.25, -121.6,   0.91802, 3,    7314.25,  118.4,   0.91802
"SCN_CN15_9035_CEIRJ006_ATV", 13.8, 1,    7314.26,   -1.6,   0.91802, 2,    7314.25, -121.6,   0.91802, 3,    7314.25,  118.4,   0.91802
"SCN_CN15_9036_CEIRJ006_ATV", 13.8, 1,    7314.26,   -1.6,   0.91802, 2,    7314.25, -121.6,   0.91802, 3,    7314.25,  118.4,   0.91802
"SCN_CN15_9105_CEI201_ATV", 13.8, 1,     6460.7,   -3.4,   0.81089, 2,    6460.69, -123.4,   0.81089, 3,    6460.69,  116.6,   0.81089
"SCN_CN15_9102_CEI201_ATV_S", 13.8, 1,    6460.62,   -3.4,   0.81088, 2,     6460.6, -123.4,   0.81088, 3,    6460.61,  116.6,   0.81088
"SCN_CN15_9017_CEI201_ATV", 13.8, 1,    6284.21,   -4.1,   0.78874, 2,     6284.2, -124.1,   0.78874, 3,     6284.2,  115.9,   0.78874
"SCN_CN15_9019_CEI201_ATV", 13.8, 1,    6284.33,   -4.1,   0.78875, 2,    6284.31, -124.1,   0.78875, 3,    6284.32,  115.9,   0.78875
"SCN_CN15_9019_CEI134C_ATV", 13.8, 1,    6339.42,   -3.9,   0.79567, 2,    6339.41, -123.9,   0.79566, 3,    6339.41,  116.1,   0.79567
"SCN_CN15_9020_CEI134C_ATV", 13.8, 1,     6339.4,   -3.9,   0.79566, 2,    6339.39, -123.9,   0.79566, 3,    6339.39,  116.1,   0.79566
"SCN_CN15_9022_CEI134C_ATV", 13.8, 1,    6339.24,   -3.9,   0.79564, 2,    6339.22, -123.9,   0.79564, 3,    6339.23,  116.1,   0.79564
"SCN_CN15_9021_CEI134C_ATV", 13.8, 1,    6339.19,   -3.9,   0.79564, 2,    6339.18, -123.9,   0.79564, 3,    6339.19,  116.1,   0.79564
"SCN_CN15_9023_CEI134C_ATV", 13.8, 1,    6339.17,   -3.9,   0.79563, 2,    6339.15, -123.9,   0.79563, 3,    6339.16,  116.1,   0.79563
"SCN_CN15_9034_CEI134C_ATV", 13.8, 1,    6339.12,   -3.9,   0.79563, 2,    6339.11, -123.9,   0.79563, 3,    6339.11,  116.1,   0.79563
"SCN_CN15_9035_CEI134C_ATV", 13.8, 1,    6339.08,   -3.9,   0.79562, 2,    6339.06, -123.9,   0.79562, 3,    6339.07,  116.1,   0.79562
"SCN_CN15_9036_CEI134C_ATV", 13.8, 1,    6339.04,   -3.9,   0.79562, 2,    6339.03, -123.9,   0.79562, 3,    6339.03,  116.1,   0.79562
"SCN_CN15_9024_CEI134B_ATV", 13.8, 1,     6342.3,   -3.8,   0.79603, 2,    6342.28, -123.8,   0.79603, 3,    6342.29,  116.2,   0.79603
"SCN_CN15_9027_CEI134B_ATV", 13.8, 1,    6342.27,   -3.8,   0.79602, 2,    6342.26, -123.8,   0.79602, 3,    6342.26,  116.2,   0.79602
"SCN_CN15_9026_CEI134B_ATV", 13.8, 1,    6342.26,   -3.8,   0.79602, 2,    6342.24, -123.8,   0.79602, 3,    6342.25,  116.2,   0.79602
"SCN_CN15_9028_CEI134B_ATV", 13.8, 1,    6342.25,   -3.8,   0.79602, 2,    6342.23, -123.8,   0.79602, 3,    6342.24,  116.2,   0.79602
"SCN_CN15_9011_CEI134_ATV", 13.8, 1,     6356.7,   -3.8,   0.79784, 2,    6356.69, -123.8,   0.79783, 3,    6356.69,  116.2,   0.79783
"SCN_CN15_9009_CEI134A_ATV", 13.8, 1,    6356.05,   -3.8,   0.79775, 2,    6356.04, -123.8,   0.79775, 3,    6356.04,  116.2,   0.79775
"SCN_CN15_9002_CEI134_ATV", 13.8, 1,    6358.28,   -3.8,   0.79803, 2,    6358.27, -123.8,   0.79803, 3,    6358.27,  116.2,   0.79803
"SCN_CN15_9003_CEI134_ATV", 13.8, 1,     6358.3,   -3.8,   0.79804, 2,    6358.29, -123.8,   0.79803, 3,    6358.29,  116.2,   0.79804
"SCN_CN15_9101_CEI109", 13.8, 1,    6360.55,   -3.8,   0.79832, 2,    6360.54, -123.8,   0.79832, 3,    6360.55,  116.2,   0.79832
"SCN_CN15_9102_CEI109", 13.8, 1,    6360.52,   -3.8,   0.79832, 2,    6360.51, -123.8,   0.79831, 3,    6360.51,  116.2,   0.79831
"SCN_CN15_9103_CEI109", 13.8, 1,     6360.5,   -3.8,   0.79831, 2,    6360.48, -123.8,   0.79831, 3,    6360.49,  116.2,   0.79831
"SCN_CN15_9104_CEI109", 13.8, 1,    6360.47,   -3.8,   0.79831, 2,    6360.46, -123.8,   0.79831, 3,    6360.46,  116.2,   0.79831
"SCN_CN15_9105_CEI109", 13.8, 1,    6360.45,   -3.8,   0.79831, 2,    6360.43, -123.8,    0.7983, 3,    6360.44,  116.2,    0.7983
"SCN_CN15_9106_CEI109", 13.8, 1,    6360.42,   -3.8,    0.7983, 2,    6360.41, -123.8,    0.7983, 3,    6360.41,  116.2,    0.7983
"SCN_CN15_9108_CEI109", 13.8, 1,     6360.4,   -3.8,    0.7983, 2,    6360.38, -123.8,    0.7983, 3,    6360.39,  116.2,    0.7983
"SCN_CN15_9109_CEI109", 13.8, 1,    6360.37,   -3.8,    0.7983, 2,    6360.36, -123.8,   0.79829, 3,    6360.36,  116.2,   0.79829
"SCN_CN15_9110_CEI109", 13.8, 1,    6360.35,   -3.8,   0.79829, 2,    6360.33, -123.8,   0.79829, 3,    6360.34,  116.2,   0.79829
"SCN_CN15_9111_CEI109", 13.8, 1,    6360.32,   -3.8,   0.79829, 2,    6360.31, -123.8,   0.79829, 3,    6360.31,  116.2,   0.79829
"SCN_CN15_9112_CEI109", 13.8, 1,    6360.31,   -3.8,   0.79829, 2,    6360.29, -123.8,   0.79829, 3,     6360.3,  116.2,   0.79829
"SCN_CN15_9113_CEI109", 13.8, 1,    6360.29,   -3.8,   0.79829, 2,    6360.27, -123.8,   0.79828, 3,    6360.28,  116.2,   0.79828
"SCN_CN15_9114_CEI109", 13.8, 1,    6360.26,   -3.8,   0.79828, 2,    6360.25, -123.8,   0.79828, 3,    6360.25,  116.2,   0.79828
"SCN_CN15_9115_CEI109", 13.8, 1,    6360.22,   -3.8,   0.79828, 2,    6360.21, -123.8,   0.79828, 3,    6360.21,  116.2,   0.79828
"SCN_CN15_9116_CEI109", 13.8, 1,     6360.2,   -3.8,   0.79827, 2,    6360.19, -123.8,   0.79827, 3,    6360.19,  116.2,   0.79827
"SCN_CN15_9010_CEI120", 13.8, 1,    6406.01,   -3.7,   0.80402, 2,       6406, -123.7,   0.80402, 3,       6406,  116.3,   0.80402
"SCN_CN15_9011_CEI120", 13.8, 1,    6407.58,   -3.6,   0.80422, 2,    6407.57, -123.6,   0.80422, 3,    6407.57,  116.4,   0.80422
"SCN_CN15_9045_CEI130_ATV", 13.8, 1,    6463.61,   -3.4,   0.81125, 2,     6463.6, -123.4,   0.81125, 3,     6463.6,  116.6,   0.81125
"SCN_CN15_9044_CEI130_ATV", 13.8, 1,    6463.61,   -3.4,   0.81125, 2,    6463.59, -123.4,   0.81125, 3,     6463.6,  116.6,   0.81125
"SCN_CN15_9043_CEI130_ATV", 13.8, 1,    6463.55,   -3.4,   0.81125, 2,    6463.54, -123.4,   0.81124, 3,    6463.54,  116.6,   0.81124
"SCN_CN15_9014_CEI69B", 13.8, 1,    6563.68,   -3.1,   0.82381, 2,    6563.67, -123.1,   0.82381, 3,    6563.67,  116.9,   0.82381
"SCN_CN15_9015_CEI69B", 13.8, 1,    6564.27,   -3.1,   0.82389, 2,    6564.26, -123.1,   0.82389, 3,    6564.26,  116.9,   0.82389
"SCN_CN15_9559_CEI109", 13.8, 1,    6352.92,   -3.8,   0.79736, 2,    6352.91, -123.8,   0.79736, 3,    6352.91,  116.2,   0.79736
"SCN_CN15_9570_CEI109", 13.8, 1,    6352.91,   -3.8,   0.79736, 2,     6352.9, -123.8,   0.79736, 3,     6352.9,  116.2,   0.79736
"SCN_CN15_9558_CEI109", 13.8, 1,    6357.21,   -3.8,    0.7979, 2,     6357.2, -123.8,    0.7979, 3,     6357.2,  116.2,    0.7979
"SCN_CN15_9560_CEI109", 13.8, 1,    6349.75,   -3.9,   0.79696, 2,    6349.74, -123.9,   0.79696, 3,    6349.74,  116.1,   0.79696
"SCN_CN15_9555_CEI109", 13.8, 1,    6362.15,   -3.8,   0.79852, 2,    6362.14, -123.8,   0.79852, 3,    6362.14,  116.2,   0.79852
"SCN_CN15_9552_CEI109", 13.8, 1,    6365.79,   -3.8,   0.79898, 2,    6365.78, -123.8,   0.79897, 3,    6365.78,  116.2,   0.79898
"SCN_CN15_9550_CEI109", 13.8, 1,    6368.97,   -3.8,   0.79938, 2,    6368.96, -123.8,   0.79937, 3,    6368.96,  116.2,   0.79937
"SCN_CN15_9548_CEI109", 13.8, 1,    6372.02,   -3.8,   0.79976, 2,       6372, -123.8,   0.79976, 3,    6372.01,  116.2,   0.79976
"SCN_CN15_9017_CEI109", 13.8, 1,    6376.17,   -3.8,   0.80028, 2,    6376.16, -123.8,   0.80028, 3,    6376.16,  116.2,   0.80028
"SCN_CN15_9548_CEI109_S", 13.8, 1,    6372.02,   -3.8,   0.79976, 2,       6372, -123.8,   0.79976, 3,    6372.01,  116.2,   0.79976
"SCN_CN15_9016_CEI109", 13.8, 1,    6376.09,   -3.8,   0.80027, 2,    6376.07, -123.8,   0.80027, 3,    6376.08,  116.2,   0.80027
"SCN_CN15_9014_CEI109", 13.8, 1,    6375.96,   -3.8,   0.80025, 2,    6375.94, -123.8,   0.80025, 3,    6375.95,  116.2,   0.80025
"SCN_CN15_9013_CEI109", 13.8, 1,     6375.9,   -3.8,   0.80025, 2,    6375.89, -123.8,   0.80024, 3,    6375.89,  116.2,   0.80024
"SCN_CN15_9012_CEI109", 13.8, 1,    6375.81,   -3.8,   0.80023, 2,     6375.8, -123.8,   0.80023, 3,     6375.8,  116.2,   0.80023
"SCN_CN15_9008_CEI109", 13.8, 1,    6375.75,   -3.8,   0.80023, 2,    6375.73, -123.8,   0.80022, 3,    6375.74,  116.2,   0.80022
"SCN_CN15_9009_CEI109", 13.8, 1,    6375.71,   -3.8,   0.80022, 2,     6375.7, -123.8,   0.80022, 3,     6375.7,  116.2,   0.80022
"SCN_CN15_9010_CEI109", 13.8, 1,    6375.68,   -3.8,   0.80022, 2,    6375.67, -123.8,   0.80022, 3,    6375.67,  116.2,   0.80022
"SCN_CN15_9011_CEI109", 13.8, 1,    6375.65,   -3.8,   0.80021, 2,    6375.64, -123.8,   0.80021, 3,    6375.64,  116.2,   0.80021
"SCN_CN15_9547_CEI109", 13.8, 1,    6371.96,   -3.8,   0.79975, 2,    6371.95, -123.8,   0.79975, 3,    6371.95,  116.2,   0.79975
"SCN_CN15_9007_CEI109", 13.8, 1,    6375.72,   -3.8,   0.80022, 2,    6375.71, -123.8,   0.80022, 3,    6375.71,  116.2,   0.80022
"SCN_CN15_9006_CEI109", 13.8, 1,     6375.7,   -3.8,   0.80022, 2,    6375.69, -123.8,   0.80022, 3,    6375.69,  116.2,   0.80022
"SCN_CN15_9005_CEI109", 13.8, 1,    6375.68,   -3.8,   0.80022, 2,    6375.67, -123.8,   0.80022, 3,    6375.67,  116.2,   0.80022
"SCN_CN15_9004_CEI109", 13.8, 1,    6375.67,   -3.8,   0.80022, 2,    6375.65, -123.8,   0.80021, 3,    6375.66,  116.2,   0.80021
"SCN_CN15_9002_CEI109", 13.8, 1,     6477.6,   -3.3,   0.81301, 2,    6477.59, -123.3,   0.81301, 3,    6477.59,  116.7,   0.81301
"SCN_CN15_9003_CEI109", 13.8, 1,     6477.6,   -3.3,   0.81301, 2,    6477.59, -123.3,   0.81301, 3,    6477.59,  116.7,   0.81301
"SCN_CN15_9001_CEI109", 13.8, 1,     6477.6,   -3.3,   0.81301, 2,    6477.59, -123.3,   0.81301, 3,    6477.59,  116.7,   0.81301
"SCN_CN15_9122_CEI201_ATV", 13.8, 1,     6477.6,   -3.3,   0.81301, 2,    6477.59, -123.3,   0.81301, 3,    6477.59,  116.7,   0.81301
"SCN_CN15_9241_CEI109", 13.8, 1,    6312.59,   -4.0,    0.7923, 2,    6312.57, -124.0,    0.7923, 3,    6312.57,  116.0,    0.7923
"SCN_CN15_9204_CEI109", 13.8, 1,    6312.59,   -4.0,    0.7923, 2,    6312.58, -124.0,    0.7923, 3,    6312.58,  116.0,    0.7923
"SCN_CN15_9242_CEI109", 13.8, 1,    6312.58,   -4.0,    0.7923, 2,    6312.56, -124.0,    0.7923, 3,    6312.57,  116.0,    0.7923
"SCN_CN15_9243_CEI109", 13.8, 1,    6312.57,   -4.0,    0.7923, 2,    6312.55, -124.0,   0.79229, 3,    6312.56,  116.0,    0.7923
"SCN_CN15_9244_CEI109", 13.8, 1,    6312.56,   -4.0,   0.79229, 2,    6312.54, -124.0,   0.79229, 3,    6312.55,  116.0,   0.79229
"SCN_CN15_9245_CEI109", 13.8, 1,    6312.55,   -4.0,   0.79229, 2,    6312.53, -124.0,   0.79229, 3,    6312.54,  116.0,   0.79229
"SCN_CN15_9190_CEI109", 13.8, 1,    6311.68,   -4.0,   0.79218, 2,    6311.67, -124.0,   0.79218, 3,    6311.67,  116.0,   0.79218
"SCN_CN15_9191_CEI109", 13.8, 1,    6311.66,   -4.0,   0.79218, 2,    6311.65, -124.0,   0.79218, 3,    6311.65,  116.0,   0.79218
"SCN_CN15_9166_CEI109", 13.8, 1,    6311.64,   -4.0,   0.79218, 2,    6311.62, -124.0,   0.79218, 3,    6311.63,  116.0,   0.79218
"SCN_CN15_9167_CEI109", 13.8, 1,    6311.63,   -4.0,   0.79218, 2,    6311.62, -124.0,   0.79218, 3,    6311.62,  116.0,   0.79218
"SCN_CN15_9168_CEI109", 13.8, 1,    6311.63,   -4.0,   0.79218, 2,    6311.61, -124.0,   0.79218, 3,    6311.62,  116.0,   0.79218
"SCN_CN15_9169_CEI109", 13.8, 1,    6311.62,   -4.0,   0.79218, 2,     6311.6, -124.0,   0.79218, 3,    6311.61,  116.0,   0.79218
"SCN_CN15_9183_CEI109", 13.8, 1,    6311.61,   -4.0,   0.79218, 2,    6311.59, -124.0,   0.79217, 3,     6311.6,  116.0,   0.79217
"SCN_CN15_9330_CEI109", 13.8, 1,    6289.93,   -4.1,   0.78945, 2,    6289.91, -124.1,   0.78945, 3,    6289.92,  115.9,   0.78945
"SCN_CN15_9329_CEI109", 13.8, 1,    6290.35,   -4.1,   0.78951, 2,    6290.33, -124.1,   0.78951, 3,    6290.34,  115.9,   0.78951
"SCN_CN15_9328_CEI109", 13.8, 1,    6290.64,   -4.1,   0.78954, 2,    6290.62, -124.1,   0.78954, 3,    6290.62,  115.9,   0.78954
"SCN_CN15_9165_CEI068", 13.8, 1,    6620.03,   -3.0,   0.83089, 2,    6620.02, -123.0,   0.83088, 3,    6620.02,  117.0,   0.83089
"SCN_CN15_9166_CEI068", 13.8, 1,    6619.99,   -3.0,   0.83088, 2,    6619.98, -123.0,   0.83088, 3,    6619.98,  117.0,   0.83088
"SCN_CN15_9327_CEI109", 13.8, 1,    6291.14,   -4.1,   0.78961, 2,    6291.13, -124.1,   0.78961, 3,    6291.13,  115.9,   0.78961
"SCN_CN15_9399_CEI109", 13.8, 1,    6291.61,   -4.1,   0.78967, 2,     6291.6, -124.1,   0.78966, 3,     6291.6,  115.9,   0.78966
"SCN_CN15_9029_CEI160_ATV", 13.8, 1,    6291.58,   -4.1,   0.78966, 2,    6291.57, -124.1,   0.78966, 3,    6291.57,  115.9,   0.78966
"SCN_CN15_9057_CEI075", 13.8, 1,    6397.77,   -3.4,   0.80299, 2,    6397.75, -123.4,   0.80299, 3,    6397.75,  116.6,   0.80299
"SCN_CN15_9054_CEIRJ006_ATV", 13.8, 1,    6397.76,   -3.4,   0.80299, 2,    6397.74, -123.4,   0.80299, 3,    6397.75,  116.6,   0.80299
"SCN_CN15_9040_CEI77A_ATV", 13.8, 1,    7314.11,   -1.6,     0.918, 2,    7314.11, -121.6,     0.918, 3,    7314.11,  118.4,     0.918
"SCN_CN15_9042_CEI77A_ATV", 13.8, 1,    7314.09,   -1.6,     0.918, 2,    7314.08, -121.6,     0.918, 3,    7314.08,  118.4,     0.918
"SCN_CN15_9043_CEI77A_ATV", 13.8, 1,    7314.06,   -1.6,   0.91799, 2,    7314.05, -121.6,   0.91799, 3,    7314.06,  118.4,   0.91799
"SCN_CN15_9190_CEI77A_ATV", 13.8, 1,    7858.79,   -0.5,   0.98636, 2,    7858.79, -120.5,   0.98636, 3,    7858.79,  119.5,   0.98636
"SCN_CN15_9194_CEI77A_ATV", 13.8, 1,    7869.43,   -0.4,    0.9877, 2,    7869.43, -120.4,    0.9877, 3,    7869.43,  119.6,    0.9877
"SCN_CN15_9195_CEI77A_ATV", 13.8, 1,    7887.51,   -0.4,   0.98997, 2,    7887.51, -120.4,   0.98997, 3,    7887.51,  119.6,   0.98997
"SCN_CN15_9196_CEI77A_ATV", 13.8, 1,    7905.47,   -0.3,   0.99222, 2,    7905.47, -120.3,   0.99222, 3,    7905.47,  119.7,   0.99222
"SCN_CN15_9197_CEI77A_ATV", 13.8, 1,    7924.96,   -0.3,   0.99467, 2,    7924.96, -120.3,   0.99467, 3,    7924.96,  119.7,   0.99467
"SCN_CN15_9198_CEI77A_ATV", 13.8, 1,    7930.97,   -0.3,   0.99542, 2,    7930.97, -120.3,   0.99542, 3,    7930.97,  119.7,   0.99542
"SCN_CN15_9200_CEI77A_ATV", 13.8, 1,    7683.02,   -0.9,    0.9643, 2,    7683.02, -120.9,    0.9643, 3,    7683.02,  119.1,    0.9643
"SCN_CN15_9201_CEI77A_ATV", 13.8, 1,    7683.04,   -0.9,   0.96431, 2,    7683.04, -120.9,   0.96431, 3,    7683.04,  119.1,   0.96431
"SCN_CN15_9039_CEI076", 13.8, 1,    6723.11,   -2.8,   0.84382, 2,     6723.1, -122.8,   0.84382, 3,     6723.1,  117.2,   0.84382
"SCN_CN15_9041_CEI076", 13.8, 1,    6723.11,   -2.8,   0.84382, 2,     6723.1, -122.8,   0.84382, 3,     6723.1,  117.2,   0.84382
"SCN_CN15_9042_CEI076", 13.8, 1,    6723.11,   -2.8,   0.84382, 2,     6723.1, -122.8,   0.84382, 3,     6723.1,  117.2,   0.84382
"SCN_CN15_9044_CEI076", 13.8, 1,    6723.11,   -2.8,   0.84382, 2,     6723.1, -122.8,   0.84382, 3,     6723.1,  117.2,   0.84382
"SCN_CN15_9045_CEI076", 13.8, 1,    6723.11,   -2.8,   0.84382, 2,     6723.1, -122.8,   0.84382, 3,     6723.1,  117.2,   0.84382
"SCN_CN15_9057_CEI068", 13.8, 1,    6718.28,   -2.7,   0.84322, 2,    6718.27, -122.7,   0.84322, 3,    6718.28,  117.3,   0.84322
"SCN_CN15_9058_CEI068", 13.8, 1,    6718.28,   -2.7,   0.84322, 2,    6718.27, -122.7,   0.84322, 3,    6718.28,  117.3,   0.84322
"SCN_CN15_9236_CEI068", 13.8, 1,    6718.28,   -2.7,   0.84322, 2,    6718.27, -122.7,   0.84322, 3,    6718.27,  117.3,   0.84322
"SCN_CN15_9240_CEI068", 13.8, 1,    6718.27,   -2.7,   0.84322, 2,    6718.26, -122.7,   0.84322, 3,    6718.27,  117.3,   0.84322
"SCN_CN15_9063_CEI072", 13.8, 1,    7146.11,   -1.9,   0.89691, 2,     7146.1, -121.9,   0.89691, 3,     7146.1,  118.1,   0.89691
"SCN_CN15_CEI_FL_MT_37442", 13.8, 1,    7146.21,   -1.9,   0.89693, 2,     7146.2, -121.9,   0.89693, 3,     7146.2,  118.1,   0.89693
"SCN_CN15_9088_CEI072", 13.8, 1,    7146.21,   -1.9,   0.89693, 2,     7146.2, -121.9,   0.89693, 3,     7146.2,  118.1,   0.89693
"SCN_CN15_9089_CEI072", 13.8, 1,    7149.65,   -1.9,   0.89736, 2,    7149.64, -121.9,   0.89736, 3,    7149.64,  118.1,   0.89736
"SCN_CN15_9062_CEI072", 13.8, 1,    7141.86,   -2.0,   0.89638, 2,    7141.86, -122.0,   0.89638, 3,    7141.86,  118.0,   0.89638
"SCN_CN15_9061_CEI071", 13.8, 1,    6979.31,   -2.3,   0.87598, 2,     6979.3, -122.3,   0.87598, 3,     6979.3,  117.7,   0.87598
"SCN_CN15_9072_CEI071", 13.8, 1,    6979.27,   -2.3,   0.87598, 2,    6979.26, -122.3,   0.87597, 3,    6979.27,  117.7,   0.87597
"SCN_CN15_9073_CEI071", 13.8, 1,    6979.25,   -2.3,   0.87597, 2,    6979.24, -122.3,   0.87597, 3,    6979.24,  117.7,   0.87597
"SCN_CN15_9075_CEI071", 13.8, 1,    6979.21,   -2.3,   0.87597, 2,     6979.2, -122.3,   0.87597, 3,    6979.21,  117.7,   0.87597
"SCN_CN15_9078_CEI071", 13.8, 1,    6979.18,   -2.3,   0.87596, 2,    6979.18, -122.3,   0.87596, 3,    6979.18,  117.7,   0.87596
"SCN_CN15_9079_CEI071", 13.8, 1,    6979.15,   -2.3,   0.87596, 2,    6979.14, -122.3,   0.87596, 3,    6979.15,  117.7,   0.87596
"SCN_CN15_9080_CEI071", 13.8, 1,    6979.13,   -2.3,   0.87596, 2,    6979.12, -122.3,   0.87596, 3,    6979.12,  117.7,   0.87596
"SCN_CN15_9081_CEI071", 13.8, 1,     6979.1,   -2.3,   0.87595, 2,    6979.09, -122.3,   0.87595, 3,    6979.09,  117.7,   0.87595
"SCN_CN15_9082_CEI071", 13.8, 1,    6979.07,   -2.3,   0.87595, 2,    6979.06, -122.3,   0.87595, 3,    6979.06,  117.7,   0.87595
"SCN_CN15_9083_CEI071", 13.8, 1,    6979.04,   -2.3,   0.87595, 2,    6979.03, -122.3,   0.87594, 3,    6979.03,  117.7,   0.87594
"SCN_CN15_9084_CEI071", 13.8, 1,    6979.01,   -2.3,   0.87594, 2,       6979, -122.3,   0.87594, 3,       6979,  117.7,   0.87594
"SCN_CN15_9145_CEI220_ATV", 13.8, 1,    6400.89,   -3.7,   0.80338, 2,    6400.88, -123.7,   0.80338, 3,    6400.88,  116.3,   0.80338
"SCN_CN15_9146_CEI220_ATV", 13.8, 1,    6400.82,   -3.7,   0.80337, 2,     6400.8, -123.7,   0.80337, 3,    6400.81,  116.3,   0.80337
"SCN_CN15_9004_CEI220_ATV", 13.8, 1,    6477.45,   -3.3,   0.81299, 2,    6477.44, -123.3,   0.81299, 3,    6477.44,  116.7,   0.81299
"SCN_CN15_9005_CEI220_ATV", 13.8, 1,    6477.45,   -3.3,   0.81299, 2,    6477.44, -123.3,   0.81299, 3,    6477.44,  116.7,   0.81299
"SCN_CN15_9088_CEI201_ATV", 13.8, 1,    6470.83,   -3.3,   0.81216, 2,    6470.81, -123.3,   0.81216, 3,    6470.82,  116.7,   0.81216
"SCN_CN15_9089_CEI201_ATV", 13.8, 1,    6470.84,   -3.3,   0.81216, 2,    6470.83, -123.3,   0.81216, 3,    6470.83,  116.7,   0.81216
"SCN_CN15_9016_CEIRJ003", 13.8, 1,    6471.34,   -3.3,   0.81222, 2,    6471.33, -123.3,   0.81222, 3,    6471.33,  116.7,   0.81222
"SCN_CN15_9089_CEI201_ATV_S", 13.8, 1,    6470.84,   -3.3,   0.81216, 2,    6470.83, -123.3,   0.81216, 3,    6470.83,  116.7,   0.81216
"SCN_CN15_9123_CEI69B", 13.8, 1,    6470.08,   -3.3,   0.81207, 2,    6470.07, -123.3,   0.81206, 3,    6470.07,  116.7,   0.81206
"SCN_CN15_9121_CEI69B", 13.8, 1,    6468.41,   -3.3,   0.81186, 2,     6468.4, -123.3,   0.81185, 3,     6468.4,  116.7,   0.81186
"SCN_CN15_9119_CEI69B", 13.8, 1,    6466.37,   -3.3,    0.8116, 2,    6466.36, -123.3,    0.8116, 3,    6466.36,  116.7,    0.8116
"SCN_CN15_9276_CEI109", 13.8, 1,    6343.03,   -3.9,   0.79612, 2,    6343.01, -123.9,   0.79612, 3,    6343.02,  116.1,   0.79612
"SCN_CN15_9277_CEI109", 13.8, 1,    6341.37,   -3.9,   0.79591, 2,    6341.35, -123.9,   0.79591, 3,    6341.36,  116.1,   0.79591
"SCN_CN15_9118_CEI69B", 13.8, 1,    6464.45,   -3.3,   0.81136, 2,    6464.44, -123.3,   0.81136, 3,    6464.44,  116.7,   0.81136
"SCN_CN15_9114_CEI230_ATV", 13.8, 1,    6459.64,   -3.3,   0.81076, 2,    6459.63, -123.3,   0.81075, 3,    6459.63,  116.7,   0.81075
"SCN_CN15_9113_CEI230_ATV", 13.8, 1,    6456.14,   -3.3,   0.81032, 2,    6456.12, -123.3,   0.81031, 3,    6456.13,  116.7,   0.81031
"SCN_CN15_9112_CEI230_ATV", 13.8, 1,    6449.54,   -3.3,   0.80949, 2,    6449.53, -123.3,   0.80949, 3,    6449.53,  116.7,   0.80949
"SCN_CN15_9111_CEI230_ATV_S", 13.8, 1,       6449,   -3.3,   0.80942, 2,    6448.98, -123.3,   0.80942, 3,    6448.99,  116.7,   0.80942
"SCN_CN15_9110_CEI230_ATV", 13.8, 1,    6448.98,   -3.3,   0.80942, 2,    6448.96, -123.3,   0.80942, 3,    6448.97,  116.7,   0.80942
"SCN_CN15_9111_CEI230_ATV", 13.8, 1,       6449,   -3.3,   0.80942, 2,    6448.98, -123.3,   0.80942, 3,    6448.99,  116.7,   0.80942
"SCN_CN15_9109_CEI230_ATV", 13.8, 1,    6448.95,   -3.3,   0.80941, 2,    6448.94, -123.3,   0.80941, 3,    6448.94,  116.7,   0.80941
"SCN_CN15_9108_CEI230_ATV", 13.8, 1,    6448.94,   -3.3,   0.80941, 2,    6448.92, -123.3,   0.80941, 3,    6448.93,  116.7,   0.80941
"SCN_CN15_9107_CEI230_ATV", 13.8, 1,    6448.93,   -3.3,   0.80941, 2,    6448.91, -123.3,   0.80941, 3,    6448.92,  116.7,   0.80941
"SCN_CN15_9106_CEI230_ATV", 13.8, 1,    6448.91,   -3.3,   0.80941, 2,     6448.9, -123.3,   0.80941, 3,     6448.9,  116.7,   0.80941
"SCN_CN15_9278_CEI109", 13.8, 1,    6339.89,   -3.9,   0.79573, 2,    6339.88, -123.9,   0.79572, 3,    6339.88,  116.1,   0.79572
"SCN_CN15_9104_CEI230_ATV", 13.8, 1,     6448.9,   -3.3,   0.80941, 2,    6448.89, -123.3,   0.80941, 3,    6448.89,  116.7,   0.80941
"SCN_CN15_9105_CEI230_ATV", 13.8, 1,    6448.89,   -3.3,   0.80941, 2,    6448.88, -123.3,    0.8094, 3,    6448.88,  116.7,   0.80941
"SCN_CN15_9103_CEI230_ATV", 13.8, 1,    6448.88,   -3.3,   0.80941, 2,    6448.87, -123.3,    0.8094, 3,    6448.87,  116.7,    0.8094
"SCN_CN15_9102_CEI230_ATV", 13.8, 1,    6448.87,   -3.3,    0.8094, 2,    6448.86, -123.3,    0.8094, 3,    6448.86,  116.7,    0.8094
"SCN_CN15_9100_CEI230_ATV", 13.8, 1,    6448.86,   -3.3,    0.8094, 2,    6448.85, -123.3,    0.8094, 3,    6448.85,  116.7,    0.8094
"SCN_CN15_9099_CEI230_ATV", 13.8, 1,    6448.85,   -3.3,    0.8094, 2,    6448.84, -123.3,    0.8094, 3,    6448.84,  116.7,    0.8094
"SCN_CN15_9098_CEI230_ATV", 13.8, 1,    6448.84,   -3.3,    0.8094, 2,    6448.83, -123.3,    0.8094, 3,    6448.83,  116.7,    0.8094
"SCN_CN15_9097_CEI230_ATV", 13.8, 1,    6448.83,   -3.3,    0.8094, 2,    6448.82, -123.3,    0.8094, 3,    6448.82,  116.7,    0.8094
"SCN_CN15_9096_CEI230_ATV", 13.8, 1,    6448.82,   -3.3,    0.8094, 2,    6448.81, -123.3,    0.8094, 3,    6448.81,  116.7,    0.8094
"SCN_CN15_9094_CEI230_ATV", 13.8, 1,    6448.82,   -3.3,    0.8094, 2,     6448.8, -123.3,    0.8094, 3,     6448.8,  116.7,    0.8094
"SCN_CN15_9281_CEI109", 13.8, 1,     6338.8,   -3.9,   0.79559, 2,    6338.79, -123.9,   0.79559, 3,    6338.79,  116.1,   0.79559
"SCN_CN15_9095_CEI230_ATV", 13.8, 1,    6448.81,   -3.3,    0.8094, 2,     6448.8, -123.3,   0.80939, 3,     6448.8,  116.7,    0.8094
"SCN_CN15_9120_CEI230_ATV", 13.8, 1,    6442.19,   -3.4,   0.80856, 2,    6442.17, -123.4,   0.80856, 3,    6442.18,  116.6,   0.80856
"SCN_CN15_9115_CEI230_ATV", 13.8, 1,    6442.08,   -3.4,   0.80855, 2,    6442.06, -123.4,   0.80855, 3,    6442.07,  116.6,   0.80855
"SCN_CN15_9119_CEI230_ATV", 13.8, 1,    6435.57,   -3.4,   0.80773, 2,    6435.55, -123.4,   0.80773, 3,    6435.56,  116.6,   0.80773
"SCN_CN15_9331_CEI109", 13.8, 1,    6289.45,   -4.1,   0.78939, 2,    6289.44, -124.1,   0.78939, 3,    6289.44,  115.9,   0.78939
"SCN_CN15_9332_CEI109", 13.8, 1,    6289.18,   -4.1,   0.78936, 2,    6289.16, -124.1,   0.78936, 3,    6289.17,  115.9,   0.78936
"SCN_CN15_9118_CEI230_ATV", 13.8, 1,    6429.04,   -3.4,   0.80691, 2,    6429.03, -123.4,   0.80691, 3,    6429.03,  116.6,   0.80691
"SCN_CN15_9117_CEI230_ATV", 13.8, 1,    6422.27,   -3.4,   0.80606, 2,    6422.25, -123.4,   0.80606, 3,    6422.25,  116.6,   0.80606
"SCN_CN15_9116_CEI230_ATV", 13.8, 1,    6415.84,   -3.4,   0.80526, 2,    6415.82, -123.4,   0.80526, 3,    6415.83,  116.6,   0.80526
"SCN_CN15_9014_CEIRJ003", 13.8, 1,    6409.67,   -3.4,   0.80448, 2,    6409.66, -123.4,   0.80448, 3,    6409.66,  116.6,   0.80448
"SCN_CN15_9002_CEI075", 13.8, 1,     6408.9,   -3.4,   0.80439, 2,    6408.89, -123.4,   0.80439, 3,    6408.89,  116.6,   0.80439
"SCN_CN15_9003_CEI075", 13.8, 1,    6408.08,   -3.4,   0.80428, 2,    6408.07, -123.4,   0.80428, 3,    6408.07,  116.6,   0.80428
"SCN_CN15_9282_CEI109", 13.8, 1,    6337.77,   -3.9,   0.79546, 2,    6337.76, -123.9,   0.79546, 3,    6337.76,  116.1,   0.79546
"SCN_CN15_9004_CEI075", 13.8, 1,    6407.17,   -3.4,   0.80417, 2,    6407.16, -123.4,   0.80417, 3,    6407.16,  116.6,   0.80417
"SCN_CN15_9052_CEIRJ006_ATV", 13.8, 1,    6408.07,   -3.4,   0.80428, 2,    6408.05, -123.4,   0.80428, 3,    6408.05,  116.6,   0.80428
"SCN_CN15_9005_CEI075", 13.8, 1,    6406.22,   -3.4,   0.80405, 2,    6406.21, -123.4,   0.80405, 3,    6406.21,  116.6,   0.80405
"SCN_CN15_9006_CEI075", 13.8, 1,    6405.08,   -3.4,   0.80391, 2,    6405.07, -123.4,   0.80391, 3,    6405.07,  116.6,   0.80391
"SCN_CN15_9007_CEI075", 13.8, 1,    6404.22,   -3.4,    0.8038, 2,     6404.2, -123.4,    0.8038, 3,    6404.21,  116.6,    0.8038
"SCN_CN15_9008_CEI075", 13.8, 1,    6403.13,   -3.4,   0.80366, 2,    6403.12, -123.4,   0.80366, 3,    6403.12,  116.6,   0.80366
"SCN_CN15_9009_CEI075", 13.8, 1,    6402.06,   -3.4,   0.80353, 2,    6402.05, -123.4,   0.80353, 3,    6402.05,  116.6,   0.80353
"SCN_CN15_9169_CEI230_ATV", 13.8, 1,    6402.05,   -3.4,   0.80353, 2,    6402.04, -123.4,   0.80353, 3,    6402.04,  116.6,   0.80353
"SCN_CN15_9010_CEI075", 13.8, 1,     6401.9,   -3.4,   0.80351, 2,    6401.89, -123.4,   0.80351, 3,    6401.89,  116.6,   0.80351
"SCN_CN15_9011_CEI075", 13.8, 1,    6401.73,   -3.4,   0.80349, 2,    6401.71, -123.4,   0.80349, 3,    6401.72,  116.6,   0.80349
"SCN_CN15_9012_CEI075", 13.8, 1,    6401.56,   -3.4,   0.80347, 2,    6401.55, -123.4,   0.80346, 3,    6401.55,  116.6,   0.80346
"SCN_CN15_9283_CEI109", 13.8, 1,    6336.21,   -3.9,   0.79526, 2,    6336.19, -123.9,   0.79526, 3,     6336.2,  116.1,   0.79526
"SCN_CN15_9013_CEI075", 13.8, 1,    6401.33,   -3.4,   0.80344, 2,    6401.31, -123.4,   0.80343, 3,    6401.32,  116.6,   0.80344
"SCN_CN15_9014_CEI075", 13.8, 1,    6401.11,   -3.4,   0.80341, 2,    6401.09, -123.4,   0.80341, 3,    6401.09,  116.6,   0.80341
"SCN_CN15_9015_CEI075", 13.8, 1,    6400.89,   -3.4,   0.80338, 2,    6400.87, -123.4,   0.80338, 3,    6400.87,  116.6,   0.80338
"SCN_CN15_9016_CEI075", 13.8, 1,    6400.66,   -3.4,   0.80335, 2,    6400.64, -123.4,   0.80335, 3,    6400.65,  116.6,   0.80335
"SCN_CN15_9017_CEI075", 13.8, 1,    6400.44,   -3.4,   0.80333, 2,    6400.43, -123.4,   0.80332, 3,    6400.43,  116.6,   0.80332
"SCN_CN15_9018_CEI075", 13.8, 1,    6400.22,   -3.4,    0.8033, 2,     6400.2, -123.4,    0.8033, 3,    6400.21,  116.6,    0.8033
"SCN_CN15_9019_CEI075", 13.8, 1,     6400.1,   -3.4,   0.80328, 2,    6400.09, -123.4,   0.80328, 3,    6400.09,  116.6,   0.80328
"SCN_CN15_9020_CEI075", 13.8, 1,    6399.99,   -3.4,   0.80327, 2,    6399.97, -123.4,   0.80327, 3,    6399.98,  116.6,   0.80327
"SCN_CN15_9022_CEI075", 13.8, 1,    6399.78,   -3.4,   0.80324, 2,    6399.77, -123.4,   0.80324, 3,    6399.77,  116.6,   0.80324
"SCN_CN15_9023_CEI075", 13.8, 1,    6399.61,   -3.4,   0.80322, 2,    6399.59, -123.4,   0.80322, 3,    6399.59,  116.6,   0.80322
"SCN_CN15_9284_CEI109", 13.8, 1,    6334.99,   -3.9,   0.79511, 2,    6334.97, -123.9,   0.79511, 3,    6334.98,  116.1,   0.79511
"SCN_CN15_9024_CEI075", 13.8, 1,    6399.38,   -3.4,   0.80319, 2,    6399.37, -123.4,   0.80319, 3,    6399.37,  116.6,   0.80319
"SCN_CN15_9025_CEI075", 13.8, 1,    6399.19,   -3.4,   0.80317, 2,    6399.17, -123.4,   0.80317, 3,    6399.18,  116.6,   0.80317
"SCN_CN15_9072_CEI230_ATV", 13.8, 1,    6399.17,   -3.4,   0.80317, 2,    6399.15, -123.4,   0.80316, 3,    6399.16,  116.6,   0.80316
"SCN_CN15_9028_CEI075", 13.8, 1,    6398.73,   -3.4,   0.80311, 2,    6398.71, -123.4,   0.80311, 3,    6398.71,  116.6,   0.80311
"SCN_CN15_9029_CEI075", 13.8, 1,    6398.62,   -3.4,    0.8031, 2,    6398.61, -123.4,    0.8031, 3,    6398.61,  116.6,    0.8031
"SCN_CN15_9027_CEI075", 13.8, 1,    6398.83,   -3.4,   0.80312, 2,    6398.82, -123.4,   0.80312, 3,    6398.82,  116.6,   0.80312
"SCN_CN15_9026_CEI075", 13.8, 1,       6399,   -3.4,   0.80314, 2,    6398.99, -123.4,   0.80314, 3,    6398.99,  116.6,   0.80314
"SCN_CN15_9030_CEI075", 13.8, 1,    6398.58,   -3.4,   0.80309, 2,    6398.56, -123.4,   0.80309, 3,    6398.57,  116.6,   0.80309
"SCN_CN15_9074_CEI230_ATV", 13.8, 1,    6398.45,   -3.4,   0.80307, 2,    6398.43, -123.4,   0.80307, 3,    6398.43,  116.6,   0.80307
"SCN_CN15_9075_CEI230_ATV", 13.8, 1,    6398.37,   -3.4,   0.80306, 2,    6398.35, -123.4,   0.80306, 3,    6398.36,  116.6,   0.80306
"SCN_CN15_9292_CEI109_S", 13.8, 1,    6333.17,   -3.9,   0.79488, 2,    6333.16, -123.9,   0.79488, 3,    6333.16,  116.1,   0.79488
"SCN_CN15_9076_CEI230_ATV_S", 13.8, 1,    6398.31,   -3.4,   0.80306, 2,     6398.3, -123.4,   0.80306, 3,     6398.3,  116.6,   0.80306
"SCN_CN15_9076_CEI230_ATV", 13.8, 1,    6398.31,   -3.4,   0.80306, 2,     6398.3, -123.4,   0.80306, 3,     6398.3,  116.6,   0.80306
"SCN_CN15_9079_CEI230_ATV", 13.8, 1,    6398.25,   -3.4,   0.80305, 2,    6398.23, -123.4,   0.80305, 3,    6398.24,  116.6,   0.80305
"SCN_CN15_9078_CEI230_ATV", 13.8, 1,    6398.19,   -3.4,   0.80304, 2,    6398.17, -123.4,   0.80304, 3,    6398.17,  116.6,   0.80304
"SCN_CN15_9077_CEI230_ATV", 13.8, 1,    6398.23,   -3.4,   0.80305, 2,    6398.22, -123.4,   0.80305, 3,    6398.22,  116.6,   0.80305
"SCN_CN15_9080_CEI230_ATV", 13.8, 1,    6398.15,   -3.4,   0.80304, 2,    6398.13, -123.4,   0.80304, 3,    6398.14,  116.6,   0.80304
"SCN_CN15_9081_CEI230_ATV", 13.8, 1,    6398.07,   -3.4,   0.80303, 2,    6398.06, -123.4,   0.80303, 3,    6398.06,  116.6,   0.80303
"SCN_CN15_9082_CEI230_ATV", 13.8, 1,    6398.07,   -3.4,   0.80303, 2,    6398.06, -123.4,   0.80303, 3,    6398.06,  116.6,   0.80303
"SCN_CN15_9084_CEI230_ATV", 13.8, 1,    6398.04,   -3.4,   0.80302, 2,    6398.03, -123.4,   0.80302, 3,    6398.03,  116.6,   0.80302
"SCN_CN15_9085_CEI230_ATV", 13.8, 1,    6398.01,   -3.4,   0.80302, 2,       6398, -123.4,   0.80302, 3,       6398,  116.6,   0.80302
"SCN_CN15_9086_CEI230_ATV", 13.8, 1,    6397.98,   -3.4,   0.80302, 2,    6397.97, -123.4,   0.80301, 3,    6397.97,  116.6,   0.80302
"SCN_CN15_9292_CEI109", 13.8, 1,    6333.17,   -3.9,   0.79488, 2,    6333.16, -123.9,   0.79488, 3,    6333.16,  116.1,   0.79488
"SCN_CN15_9423_CEI109", 13.8, 1,    6333.11,   -3.9,   0.79487, 2,     6333.1, -123.9,   0.79487, 3,     6333.1,  116.1,   0.79487
"SCN_CN15_9087_CEI230_ATV", 13.8, 1,    6397.96,   -3.4,   0.80301, 2,    6397.94, -123.4,   0.80301, 3,    6397.95,  116.6,   0.80301
"SCN_CN15_9083_CEI230_ATV", 13.8, 1,    6398.05,   -3.4,   0.80302, 2,    6398.03, -123.4,   0.80302, 3,    6398.04,  116.6,   0.80302
"SCN_CN15_9088_CEI230_ATV", 13.8, 1,    6398.02,   -3.4,   0.80302, 2,    6398.01, -123.4,   0.80302, 3,    6398.01,  116.6,   0.80302
"SCN_CN15_9090_CEI230_ATV", 13.8, 1,       6398,   -3.4,   0.80302, 2,    6397.98, -123.4,   0.80302, 3,    6397.99,  116.6,   0.80302
"SCN_CN15_9084_CEI148_ATV", 13.8, 1,    6276.72,   -4.1,    0.7878, 2,     6276.7, -124.1,   0.78779, 3,    6276.71,  115.9,    0.7878
"SCN_CN15_9083_CEI148_ATV", 13.8, 1,    6277.15,   -4.1,   0.78785, 2,    6277.13, -124.1,   0.78785, 3,    6277.14,  115.9,   0.78785
"SCN_CN15_9086_CEI148_ATV", 13.8, 1,    6276.37,   -4.1,   0.78775, 2,    6276.36, -124.1,   0.78775, 3,    6276.36,  115.9,   0.78775
"SCN_CN15_9100_CEI201_ATV", 13.8, 1,    6460.58,   -3.4,   0.81087, 2,    6460.57, -123.4,   0.81087, 3,    6460.57,  116.6,   0.81087
"SCN_CN15_9102_CEI201_ATV", 13.8, 1,    6460.62,   -3.4,   0.81088, 2,     6460.6, -123.4,   0.81088, 3,    6460.61,  116.6,   0.81088
"SCN_CN15_9087_CEI148_ATV", 13.8, 1,    6275.67,   -4.1,   0.78767, 2,    6275.65, -124.1,   0.78766, 3,    6275.66,  115.9,   0.78766
"SCN_CN15_9088_CEI148_ATV", 13.8, 1,    6275.64,   -4.1,   0.78766, 2,    6275.63, -124.1,   0.78766, 3,    6275.63,  115.9,   0.78766
"SCN_CN15_9090_CEI148_ATV", 13.8, 1,    6275.58,   -4.1,   0.78765, 2,    6275.56, -124.1,   0.78765, 3,    6275.57,  115.9,   0.78765
"SCN_CN15_9424_CEI109", 13.8, 1,    6333.03,   -3.9,   0.79486, 2,    6333.01, -123.9,   0.79486, 3,    6333.02,  116.1,   0.79486
"SCN_CN15_9034_CEI148A_ATV", 13.8, 1,    6275.21,   -4.1,   0.78761, 2,     6275.2, -124.1,   0.78761, 3,     6275.2,  115.9,   0.78761
"SCN_CN15_9033_CEI148A_ATV", 13.8, 1,     6274.8,   -4.1,   0.78756, 2,    6274.78, -124.1,   0.78755, 3,    6274.79,  115.9,   0.78755
"SCN_CN15_9035_CEI148A_ATV", 13.8, 1,    6274.78,   -4.1,   0.78755, 2,    6274.77, -124.1,   0.78755, 3,    6274.77,  115.9,   0.78755
"SCN_CN15_9031_CEI148A_ATV", 13.8, 1,    6274.36,   -4.1,    0.7875, 2,    6274.35, -124.1,    0.7875, 3,    6274.35,  115.9,    0.7875
"SCN_CN15_9030_CEI148A_ATV", 13.8, 1,    6273.97,   -4.1,   0.78745, 2,    6273.95, -124.1,   0.78745, 3,    6273.96,  115.9,   0.78745
"SCN_CN15_9029_CEI148A_ATV_S", 13.8, 1,    6273.93,   -4.1,   0.78745, 2,    6273.91, -124.1,   0.78744, 3,    6273.92,  115.9,   0.78744
"SCN_CN15_9028_CEI148A_ATV", 13.8, 1,    6273.91,   -4.1,   0.78744, 2,     6273.9, -124.1,   0.78744, 3,     6273.9,  115.9,   0.78744
"SCN_CN15_9029_CEI148A_ATV", 13.8, 1,    6273.93,   -4.1,   0.78745, 2,    6273.91, -124.1,   0.78744, 3,    6273.92,  115.9,   0.78744
"SCN_CN15_9032_CEI148A_ATV", 13.8, 1,    6273.91,   -4.1,   0.78744, 2,    6273.89, -124.1,   0.78744, 3,     6273.9,  115.9,   0.78744
"SCN_CN15_9078_CEI201_ATV", 13.8, 1,    6273.88,   -4.1,   0.78744, 2,    6273.87, -124.1,   0.78744, 3,    6273.87,  115.9,   0.78744
"SCN_CN15_9075_CEI201_ATV", 13.8, 1,    6273.86,   -4.1,   0.78744, 2,    6273.84, -124.1,   0.78744, 3,    6273.85,  115.9,   0.78744
"SCN_CN15_9425_CEI109", 13.8, 1,    6332.95,   -3.9,   0.79485, 2,    6332.93, -123.9,   0.79485, 3,    6332.93,  116.1,   0.79485
"SCN_CN15_9025_CEI148A_ATV", 13.8, 1,    6273.58,   -4.1,    0.7874, 2,    6273.56, -124.1,    0.7874, 3,    6273.57,  115.9,    0.7874
"SCN_CN15_9023_CEI148A_ATV_S", 13.8, 1,    6272.83,   -4.1,   0.78731, 2,    6272.81, -124.1,   0.78731, 3,    6272.82,  115.9,   0.78731
"SCN_CN15_9028_CEI69A", 13.8, 1,    6272.81,   -4.1,   0.78731, 2,     6272.8, -124.1,   0.78731, 3,     6272.8,  115.9,   0.78731
"SCN_CN15_9023_CEI148A_ATV", 13.8, 1,    6272.83,   -4.1,   0.78731, 2,    6272.81, -124.1,   0.78731, 3,    6272.82,  115.9,   0.78731
"SCN_CN15_9022_CEI148A_ATV", 13.8, 1,    6272.79,   -4.1,    0.7873, 2,    6272.78, -124.1,    0.7873, 3,    6272.78,  115.9,    0.7873
"SCN_CN15_9021_CEI148A_ATV", 13.8, 1,    6272.75,   -4.1,    0.7873, 2,    6272.74, -124.1,    0.7873, 3,    6272.74,  115.9,    0.7873
"SCN_CN15_9020_CEI148A_ATV_S", 13.8, 1,    6272.73,   -4.1,    0.7873, 2,    6272.72, -124.1,   0.78729, 3,    6272.72,  115.9,    0.7873
"SCN_CN15_9020_CEI148A_ATV", 13.8, 1,    6272.73,   -4.1,    0.7873, 2,    6272.72, -124.1,   0.78729, 3,    6272.72,  115.9,    0.7873
"SCN_CN15_9019_CEI148A_ATV", 13.8, 1,    6272.72,   -4.1,    0.7873, 2,    6272.71, -124.1,   0.78729, 3,    6272.71,  115.9,   0.78729
"SCN_CN15_9001_CEI148A_ATV", 13.8, 1,    6270.63,   -4.1,   0.78703, 2,    6270.61, -124.1,   0.78703, 3,    6270.62,  115.9,   0.78703
"SCN_CN15_9002_CEI148A_ATV", 13.8, 1,    6270.67,   -4.1,   0.78704, 2,    6270.65, -124.1,   0.78704, 3,    6270.65,  115.9,   0.78704
"SCN_CN15_9003_CEI148A_ATV", 13.8, 1,    6270.68,   -4.1,   0.78704, 2,    6270.67, -124.1,   0.78704, 3,    6270.67,  115.9,   0.78704
"SCN_CN15_9005_CEI148A_ATV", 13.8, 1,     6270.7,   -4.1,   0.78704, 2,    6270.68, -124.1,   0.78704, 3,    6270.69,  115.9,   0.78704
"SCN_CN15_9426_CEI109", 13.8, 1,    6332.88,   -3.9,   0.79485, 2,    6332.86, -123.9,   0.79484, 3,    6332.87,  116.1,   0.79484
"SCN_CN15_9004_CEI148A_ATV", 13.8, 1,    6270.72,   -4.1,   0.78704, 2,     6270.7, -124.1,   0.78704, 3,    6270.71,  115.9,   0.78704
"SCN_CN15_9143_CEI220_ATV", 13.8, 1,    6400.99,   -3.7,   0.80339, 2,    6400.98, -123.7,   0.80339, 3,    6400.99,  116.3,   0.80339
"SCN_CN15_9144_CEI220_ATV", 13.8, 1,    6400.94,   -3.7,   0.80339, 2,    6400.93, -123.7,   0.80339, 3,    6400.93,  116.3,   0.80339
"SCN_CN15_9006_CEI148A_ATV", 13.8, 1,    6270.76,   -4.1,   0.78705, 2,    6270.75, -124.1,   0.78705, 3,    6270.75,  115.9,   0.78705
"SCN_CN15_9007_CEI148A_ATV", 13.8, 1,     6270.8,   -4.1,   0.78705, 2,    6270.79, -124.1,   0.78705, 3,    6270.79,  115.9,   0.78705
"SCN_CN15_9008_CEI148A_ATV", 13.8, 1,    6270.87,   -4.1,   0.78706, 2,    6270.86, -124.1,   0.78706, 3,    6270.86,  115.9,   0.78706
"SCN_CN15_9010_CEI148A_ATV", 13.8, 1,       6271,   -4.1,   0.78708, 2,    6270.98, -124.1,   0.78708, 3,    6270.98,  115.9,   0.78708
"SCN_CN15_9009_CEI148A_ATV", 13.8, 1,    6270.87,   -4.1,   0.78706, 2,    6270.86, -124.1,   0.78706, 3,    6270.86,  115.9,   0.78706
"SCN_CN15_9011_CEI148A_ATV", 13.8, 1,    6271.07,   -4.1,   0.78709, 2,    6271.05, -124.1,   0.78709, 3,    6271.06,  115.9,   0.78709
"SCN_CN15_9012_CEI148A_ATV", 13.8, 1,    6271.13,   -4.1,    0.7871, 2,    6271.12, -124.1,   0.78709, 3,    6271.12,  115.9,   0.78709
"SCN_CN15_9013_CEI148A_ATV", 13.8, 1,    6271.25,   -4.1,   0.78711, 2,    6271.24, -124.1,   0.78711, 3,    6271.24,  115.9,   0.78711
"SCN_CN15_9014_CEI148A_ATV", 13.8, 1,     6271.4,   -4.1,   0.78713, 2,    6271.38, -124.1,   0.78713, 3,    6271.39,  115.9,   0.78713
"SCN_CN15_9015_CEI148A_ATV", 13.8, 1,    6271.55,   -4.1,   0.78715, 2,    6271.54, -124.1,   0.78715, 3,    6271.54,  115.9,   0.78715
"SCN_CN15_9427_CEI109", 13.8, 1,     6332.8,   -3.9,   0.79484, 2,    6332.78, -123.9,   0.79483, 3,    6332.79,  116.1,   0.79483
"SCN_CN15_9016_CEI148A_ATV", 13.8, 1,     6271.7,   -4.1,   0.78717, 2,    6271.69, -124.1,   0.78717, 3,    6271.69,  115.9,   0.78717
"SCN_CN15_9017_CEI148A_ATV", 13.8, 1,    6271.77,   -4.1,   0.78718, 2,    6271.76, -124.1,   0.78717, 3,    6271.76,  115.9,   0.78717
"SCN_CN15_9018_CEI148A_ATV", 13.8, 1,    6271.86,   -4.1,   0.78719, 2,    6271.85, -124.1,   0.78719, 3,    6271.85,  115.9,   0.78719
"SCN_CN15_9020_CEI69A", 13.8, 1,    6272.09,   -4.1,   0.78722, 2,    6272.08, -124.1,   0.78721, 3,    6272.08,  115.9,   0.78721
"SCN_CN15_9018_CEI148A_ATV_S", 13.8, 1,    6271.86,   -4.1,   0.78719, 2,    6271.85, -124.1,   0.78719, 3,    6271.85,  115.9,   0.78719
"SCN_CN15_9019_CEI69A", 13.8, 1,    6272.01,   -4.1,   0.78721, 2,       6272, -124.1,    0.7872, 3,       6272,  115.9,    0.7872
"SCN_CN15_9018_CEI69A", 13.8, 1,    6271.95,   -4.1,    0.7872, 2,    6271.94, -124.1,    0.7872, 3,    6271.94,  115.9,    0.7872
"SCN_CN15_9017_CEI69A", 13.8, 1,     6271.9,   -4.1,   0.78719, 2,    6271.88, -124.1,   0.78719, 3,    6271.89,  115.9,   0.78719
"SCN_CN15_9016_CEI69A", 13.8, 1,    6271.89,   -4.1,   0.78719, 2,    6271.87, -124.1,   0.78719, 3,    6271.88,  115.9,   0.78719
"SCN_CN15_9015_CEI69A", 13.8, 1,    6271.89,   -4.1,   0.78719, 2,    6271.87, -124.1,   0.78719, 3,    6271.88,  115.9,   0.78719
"SCN_CN15_9428_CEI109", 13.8, 1,    6332.71,   -3.9,   0.79482, 2,     6332.7, -123.9,   0.79482, 3,     6332.7,  116.1,   0.79482
"SCN_CN15_9012_CEI69A_S", 13.8, 1,    6271.86,   -4.1,   0.78719, 2,    6271.85, -124.1,   0.78719, 3,    6271.85,  115.9,   0.78719
"SCN_CN15_9012_CEI69A", 13.8, 1,    6271.86,   -4.1,   0.78719, 2,    6271.85, -124.1,   0.78719, 3,    6271.85,  115.9,   0.78719
"SCN_CN15_9013_CEI69A", 13.8, 1,    6271.85,   -4.1,   0.78719, 2,    6271.83, -124.1,   0.78718, 3,    6271.84,  115.9,   0.78718
"SCN_CN15_9014_CEI69A", 13.8, 1,    6271.84,   -4.1,   0.78718, 2,    6271.82, -124.1,   0.78718, 3,    6271.83,  115.9,   0.78718
"SCN_CN15_9011_CEI69A", 13.8, 1,    6271.86,   -4.1,   0.78719, 2,    6271.85, -124.1,   0.78719, 3,    6271.85,  115.9,   0.78719
"SCN_CN15_9073_CEIRJ006_ATV", 13.8, 1,    6275.54,   -4.1,   0.78765, 2,    6275.52, -124.1,   0.78765, 3,    6275.53,  115.9,   0.78765
"SCN_CN15_9091_CEI148_ATV", 13.8, 1,    6275.53,   -4.1,   0.78765, 2,    6275.52, -124.1,   0.78765, 3,    6275.52,  115.9,   0.78765
"SCN_CN15_9092_CEI148_ATV", 13.8, 1,    6275.52,   -4.1,   0.78765, 2,    6275.51, -124.1,   0.78764, 3,    6275.51,  115.9,   0.78765
"SCN_CN15_9089_CEI148_ATV", 13.8, 1,    6275.52,   -4.1,   0.78765, 2,     6275.5, -124.1,   0.78764, 3,    6275.51,  115.9,   0.78764
"SCN_CN15_9042_CEI69A", 13.8, 1,     6275.6,   -4.1,   0.78766, 2,    6275.58, -124.1,   0.78765, 3,    6275.59,  115.9,   0.78765
"SCN_CN15_9100_CEI072", 13.8, 1,    7182.08,   -1.9,   0.90143, 2,    7182.08, -121.9,   0.90143, 3,    7182.08,  118.1,   0.90143
"SCN_CN15_9101_CEI072", 13.8, 1,    7182.02,   -1.9,   0.90142, 2,    7182.01, -121.9,   0.90142, 3,    7182.01,  118.1,   0.90142
"SCN_CN15_9102_CEI072", 13.8, 1,    7181.95,   -1.9,   0.90141, 2,    7181.94, -121.9,   0.90141, 3,    7181.95,  118.1,   0.90141
"SCN_CN15_9103_CEI072", 13.8, 1,    7181.88,   -1.9,    0.9014, 2,    7181.87, -121.9,    0.9014, 3,    7181.88,  118.1,    0.9014
"SCN_CN15_9104_CEI072", 13.8, 1,    7181.82,   -1.9,    0.9014, 2,    7181.81, -121.9,    0.9014, 3,    7181.81,  118.1,    0.9014
"SCN_CN15_9105_CEI072", 13.8, 1,    7181.75,   -1.9,   0.90139, 2,    7181.74, -121.9,   0.90139, 3,    7181.74,  118.1,   0.90139
"SCN_CN15_9491_CEI109", 13.8, 1,    6290.06,   -4.1,   0.78947, 2,    6290.04, -124.1,   0.78947, 3,    6290.05,  115.9,   0.78947
"SCN_CN15_9492_CEI109", 13.8, 1,    6289.97,   -4.1,   0.78946, 2,    6289.95, -124.1,   0.78946, 3,    6289.96,  115.9,   0.78946
"SCN_CN15_9106_CEI072", 13.8, 1,    7181.68,   -1.9,   0.90138, 2,    7181.68, -121.9,   0.90138, 3,    7181.68,  118.1,   0.90138
"SCN_CN15_9107_CEI072", 13.8, 1,    7181.55,   -1.9,   0.90136, 2,    7181.54, -121.9,   0.90136, 3,    7181.55,  118.1,   0.90136
"SCN_CN15_9108_CEI072", 13.8, 1,    7181.45,   -1.9,   0.90135, 2,    7181.44, -121.9,   0.90135, 3,    7181.44,  118.1,   0.90135
"SCN_CN15_9109_CEI072", 13.8, 1,    7181.39,   -1.9,   0.90134, 2,    7181.39, -121.9,   0.90134, 3,    7181.39,  118.1,   0.90134
"SCN_CN15_9110_CEI072", 13.8, 1,    7181.34,   -1.9,   0.90134, 2,    7181.33, -121.9,   0.90134, 3,    7181.33,  118.1,   0.90134
"SCN_CN15_9111_CEI072", 13.8, 1,    7181.27,   -1.9,   0.90133, 2,    7181.26, -121.9,   0.90133, 3,    7181.26,  118.1,   0.90133
"SCN_CN15_9112_CEI072", 13.8, 1,     7181.2,   -1.9,   0.90132, 2,    7181.19, -121.9,   0.90132, 3,    7181.19,  118.1,   0.90132
"SCN_CN15_9113_CEI072", 13.8, 1,    7181.13,   -1.9,   0.90131, 2,    7181.12, -121.9,   0.90131, 3,    7181.12,  118.1,   0.90131
...
"SCN_CN15_592-0899-22", 13.8, 1,    6557.13,   -3.1,   0.82299, 2,    6557.12, -123.1,   0.82299, 3,    6557.12,  116.9,   0.82299
"SCN_CN15_592-0899-22_S", 13.8, 1,    6557.13,   -3.1,   0.82299, 2,    6557.12, -123.1,   0.82299, 3,    6557.12,  116.9,   0.82299
"SCN_CN15_9013_CEI69B", 13.8, 1,    6569.44,   -3.1,   0.82454, 2,    6569.42, -123.1,   0.82453, 3,    6569.43,  116.9,   0.82454
"SCN_CN15_9015_CEI69B_S", 13.8, 1,    6564.27,   -3.1,   0.82389, 2,    6564.26, -123.1,   0.82389, 3,    6564.26,  116.9,   0.82389
"SCN_CN15_9012_CEI69B", 13.8, 1,    6575.65,   -3.1,   0.82532, 2,    6575.64, -123.1,   0.82531, 3,    6575.64,  116.9,   0.82532
"SCN_CN15_9011_CEI69B", 13.8, 1,    6581.74,   -3.1,   0.82608, 2,    6581.73, -123.1,   0.82608, 3,    6581.74,  116.9,   0.82608
"SCN_CN15_9162_CEI068", 13.8, 1,    6589.41,   -3.0,   0.82704, 2,     6589.4, -123.0,   0.82704, 3,     6589.4,  117.0,   0.82704
"SCN_CN15_9163_CEI068", 13.8, 1,    6597.44,   -3.0,   0.82805, 2,    6597.43, -123.0,   0.82805, 3,    6597.43,  117.0,   0.82805
"SCN_CN15_9164_CEI068", 13.8, 1,    6611.57,   -3.0,   0.82982, 2,    6611.56, -123.0,   0.82982, 3,    6611.57,  117.0,   0.82982
"SCN_CN15_9451_CEI109", 13.8, 1,    6332.11,   -3.9,   0.79475, 2,    6332.09, -123.9,   0.79475, 3,     6332.1,  116.1,   0.79475
"SCN_CN15_9169_CEI068", 13.8, 1,    6625.16,   -3.0,   0.83153, 2,    6625.15, -123.0,   0.83153, 3,    6625.16,  117.0,   0.83153
"SCN_CN15_9170_CEI068", 13.8, 1,    6625.28,   -3.0,   0.83155, 2,    6625.27, -123.0,   0.83154, 3,    6625.28,  117.0,   0.83154
"SCN_CN15_9170_CEI068_S", 13.8, 1,    6625.28,   -3.0,   0.83155, 2,    6625.27, -123.0,   0.83154, 3,    6625.28,  117.0,   0.83154
"SCN_CN15_9171_CEI068", 13.8, 1,    6639.88,   -2.9,   0.83338, 2,    6639.87, -122.9,   0.83338, 3,    6639.87,  117.1,   0.83338
"SCN_CN15_9172_CEI068", 13.8, 1,    6656.04,   -2.9,   0.83541, 2,    6656.03, -122.9,    0.8354, 3,    6656.03,  117.1,    0.8354
"SCN_CN15_9182_CEI068", 13.8, 1,    6674.81,   -2.8,   0.83776, 2,     6674.8, -122.8,   0.83776, 3,    6674.81,  117.2,   0.83776
"SCN_CN15_9181_CEI068", 13.8, 1,    6674.79,   -2.8,   0.83776, 2,    6674.77, -122.8,   0.83776, 3,    6674.78,  117.2,   0.83776
"SCN_CN15_9182_CEI068_S", 13.8, 1,    6674.81,   -2.8,   0.83776, 2,     6674.8, -122.8,   0.83776, 3,    6674.81,  117.2,   0.83776
"SCN_CN15_9183_CEI068", 13.8, 1,    6694.42,   -2.8,   0.84022, 2,    6694.41, -122.8,   0.84022, 3,    6694.41,  117.2,   0.84022
"SCN_CN15_9183_CEI068_S", 13.8, 1,    6694.42,   -2.8,   0.84022, 2,    6694.41, -122.8,   0.84022, 3,    6694.41,  117.2,   0.84022
"SCN_CN15_9186_CEI068", 13.8, 1,    6708.96,   -2.8,   0.84205, 2,    6708.95, -122.8,   0.84205, 3,    6708.96,  117.2,   0.84205
"SCN_CN15_9107_CEI068", 13.8, 1,    6717.96,   -2.7,   0.84318, 2,    6717.95, -122.7,   0.84318, 3,    6717.96,  117.3,   0.84318
"SCN_CN15_9450_CEI109", 13.8, 1,    6332.08,   -3.9,   0.79474, 2,    6332.06, -123.9,   0.79474, 3,    6332.07,  116.1,   0.79474
"SCN_CN15_9103_CEI068", 13.8, 1,    6727.86,   -2.7,   0.84442, 2,    6727.85, -122.7,   0.84442, 3,    6727.86,  117.3,   0.84442
"SCN_CN15_9092_CEI068", 13.8, 1,     6727.7,   -2.7,    0.8444, 2,    6727.69, -122.7,    0.8444, 3,    6727.69,  117.3,    0.8444
"SCN_CN15_9091_CEI068", 13.8, 1,    6727.53,   -2.7,   0.84438, 2,    6727.52, -122.7,   0.84438, 3,    6727.52,  117.3,   0.84438
"SCN_CN15_9090_CEI068", 13.8, 1,     6727.2,   -2.7,   0.84434, 2,    6727.19, -122.7,   0.84434, 3,    6727.19,  117.3,   0.84434
"SCN_CN15_9089_CEI068_S", 13.8, 1,       6727,   -2.7,   0.84431, 2,    6726.99, -122.7,   0.84431, 3,    6726.99,  117.3,   0.84431
"SCN_CN15_9086_CEI068", 13.8, 1,    6726.73,   -2.7,   0.84428, 2,    6726.72, -122.7,   0.84428, 3,    6726.72,  117.3,   0.84428
"SCN_CN15_9085_CEI068", 13.8, 1,    6726.39,   -2.7,   0.84423, 2,    6726.38, -122.7,   0.84423, 3,    6726.38,  117.3,   0.84423
"SCN_CN15_9086_CEI068_S", 13.8, 1,    6726.73,   -2.7,   0.84428, 2,    6726.72, -122.7,   0.84428, 3,    6726.72,  117.3,   0.84428
"SCN_CN15_9082_CEI068", 13.8, 1,    6725.99,   -2.7,   0.84418, 2,    6725.98, -122.7,   0.84418, 3,    6725.98,  117.3,   0.84418
"SCN_CN15_9081_CEI068", 13.8, 1,    6725.57,   -2.7,   0.84413, 2,    6725.56, -122.7,   0.84413, 3,    6725.57,  117.3,   0.84413
"SCN_CN15_9080_CEI068", 13.8, 1,    6725.17,   -2.7,   0.84408, 2,    6725.16, -122.7,   0.84408, 3,    6725.16,  117.3,   0.84408
"SCN_CN15_9026_CEI201_ATV", 13.8, 1,    6285.61,   -4.1,   0.78891, 2,     6285.6, -124.1,   0.78891, 3,     6285.6,  115.9,   0.78891
"SCN_CN15_9027_CEI201_ATV", 13.8, 1,    6285.79,   -4.1,   0.78893, 2,    6285.77, -124.1,   0.78893, 3,    6285.78,  115.9,   0.78893
"SCN_CN15_9449_CEI109", 13.8, 1,    6332.05,   -3.9,   0.79474, 2,    6332.04, -123.9,   0.79474, 3,    6332.04,  116.1,   0.79474
"SCN_CN15_9079_CEI068", 13.8, 1,    6724.77,   -2.7,   0.84403, 2,    6724.76, -122.7,   0.84403, 3,    6724.77,  117.3,   0.84403
"SCN_CN15_9078_CEI068", 13.8, 1,    6724.37,   -2.7,   0.84398, 2,    6724.36, -122.7,   0.84398, 3,    6724.37,  117.3,   0.84398
"SCN_CN15_9077_CEI068", 13.8, 1,    6723.97,   -2.7,   0.84393, 2,    6723.96, -122.7,   0.84393, 3,    6723.96,  117.3,   0.84393
"SCN_CN15_9076_CEI068", 13.8, 1,    6723.59,   -2.7,   0.84388, 2,    6723.58, -122.7,   0.84388, 3,    6723.59,  117.3,   0.84388
"SCN_CN15_9075_CEI068", 13.8, 1,    6723.22,   -2.7,   0.84384, 2,    6723.21, -122.7,   0.84384, 3,    6723.22,  117.3,   0.84384
"SCN_CN15_9074_CEI068", 13.8, 1,    6722.84,   -2.7,   0.84379, 2,    6722.83, -122.7,   0.84379, 3,    6722.83,  117.3,   0.84379
"SCN_CN15_9073_CEI068", 13.8, 1,    6722.45,   -2.7,   0.84374, 2,    6722.44, -122.7,   0.84374, 3,    6722.44,  117.3,   0.84374
"SCN_CN15_9072_CEI068", 13.8, 1,    6722.07,   -2.7,   0.84369, 2,    6722.06, -122.7,   0.84369, 3,    6722.06,  117.3,   0.84369
"SCN_CN15_9071_CEI068", 13.8, 1,    6721.71,   -2.7,   0.84365, 2,    6721.69, -122.7,   0.84365, 3,     6721.7,  117.3,   0.84365
"SCN_CN15_9070_CEI068", 13.8, 1,    6721.44,   -2.7,   0.84361, 2,    6721.43, -122.7,   0.84361, 3,    6721.43,  117.3,   0.84361
...